19
02/25/2022 13:37, XYZ structure generated by mol3D Class, molSimplify
Co 	0.000000	0.000000	0.000000
O 	0.000000	2.040000	0.000000
H 	0.675299	2.650856	-0.392364
H 	-0.676340	2.650128	0.391724
O 	2.040000	0.000000	0.000000
H 	2.650085	-0.663536	-0.413084
H 	2.650884	0.662185	0.414075
O 	0.000000	-2.040000	0.000000
H 	-0.650142	-2.649995	-0.434003
H 	0.649459	-2.650959	0.433702
O 	-2.040000	0.000000	0.000000
H 	-2.650734	0.632981	-0.457666
H 	-2.650124	-0.634238	0.456750
O 	0.000000	0.000000	2.040000
H 	-0.477598	0.618689	2.650158
H 	0.476625	-0.618985	2.650590
O 	0.000000	0.000000	-2.040000
H 	0.500179	0.600911	-2.649805
H 	-0.498070	-0.601271	-2.651230
