13
02/25/2022 13:37, XYZ structure generated by mol3D Class, molSimplify
Co 	0.000000	0.000000	0.000000
C 	0.000000	2.161393	0.000000
O 	0.000000	3.289645	-0.000001
C 	2.161393	0.000000	0.000000
O 	3.289645	0.000000	-0.000001
C 	0.000000	-2.161393	0.000000
O 	0.000000	-3.289645	-0.000001
C 	-2.161393	0.000000	0.000000
O 	-3.289645	0.000000	-0.000001
C 	0.000000	0.000000	1.956464
O 	0.000000	0.000000	3.085278
C 	0.000000	0.000000	-1.971566
O 	0.000000	0.000000	-3.100315
