55
02/25/2022 13:37, XYZ structure generated by mol3D Class, molSimplify
Co 	0.000000	0.000000	0.000000
O 	0.000000	2.179736	0.000000
C 	-1.055414	2.978249	0.023662
C 	-0.669615	4.297986	0.011683
C 	0.696390	4.289189	-0.008704
C 	1.065667	2.964219	-0.021530
H 	-2.081071	2.666001	0.053965
H 	-1.315966	5.165556	0.020861
H 	2.087014	2.637048	-0.048899
H 	1.352765	5.149115	-0.015927
O 	2.179736	0.000000	0.000000
C 	3.004156	0.528884	0.889324
C 	4.311512	0.271421	0.548439
C 	4.262041	-0.461944	-0.607135
C 	2.925393	-0.621679	-0.898283
H 	2.693091	1.096146	1.755767
H 	5.197870	0.587026	1.083068
H 	2.542010	-1.162968	-1.751344
H 	5.102156	-0.839887	-1.173669
O 	0.000000	-2.179736	0.000000
C 	0.292709	-3.010124	0.996449
C 	0.178617	-4.326126	0.613989
C 	-0.212395	-4.302010	-0.685935
C 	-0.301948	-2.975366	-1.023043
H 	0.582594	-2.751411	1.988018
H 	0.359093	-5.203245	1.221648
H 	-0.586235	-2.689635	-2.005922
H 	-0.410994	-5.153077	-1.325320
O 	-2.179736	0.000000	0.000000
C 	-2.933388	-0.663842	0.858573
C 	-4.266584	-0.511289	0.542030
C 	-4.302806	0.273072	-0.581250
C 	-2.992466	0.561372	-0.879937
H 	-2.555775	-1.231981	1.697525
H 	-5.115044	-0.924254	1.070391
H 	-2.669992	1.170568	-1.713503
H 	-5.179906	0.600856	-1.122649
O 	0.000000	0.000000	2.018195
C 	-0.898629	0.648374	2.745605
C 	-0.619603	0.518818	4.089769
C 	0.525486	-0.221852	4.171807
C 	0.880617	-0.503626	2.871063
H 	-1.737150	1.199452	2.346073
H 	-1.183343	0.927174	4.917412
H 	1.759430	-1.073052	2.594556
H 	1.048825	-0.532225	5.063210
O 	0.000000	0.000000	-2.014131
C 	0.896406	0.623616	-2.771253
C 	0.586285	0.494186	-4.108633
C 	-0.580853	-0.215589	-4.157366
C 	-0.913374	-0.477932	-2.851081
H 	1.757747	1.153985	-2.397810
H 	1.144106	0.878567	-4.949739
H 	-1.801639	-1.019569	-2.557787
H 	-1.135699	-0.508204	-5.039645
