8
21.gzmat
C          0.00000        0.00000        0.00000
C          1.34000        0.00000        0.00000
C          2.06500        0.00000        1.25574
O          2.37000       -1.05655        1.78401
H         -0.54000        0.00000       -0.93531
H         -0.54000        0.00000        0.93531
H          1.88000       -0.00000       -0.93531
H          2.33500        0.93531        1.72339
